*Heading
** Job name: short_elastic Model name: Model-1
** Generated by: Abaqus/CAE 6.14-2
*Preprint, echo=NO, model=NO, history=NO, contact=NO
**
** PARTS
**
*Part, name=pile
*Node
      1,         3.75,           0.,          21.
      2,        -3.75,           0.,          21.
      3,  -3.62222195,  0.970571399,          21.
      4,  -3.24759531,        1.875,          21.
      5,  -2.65165043,   2.65165043,          21.
      6,       -1.875,   3.24759531,          21.
      7, -0.970571399,   3.62222195,          21.
      8,  0.970571399,   3.62222195,          21.
      9,        1.875,   3.24759531,          21.
     10,   2.65165043,   2.65165043,          21.
     11,   3.24759531,        1.875,          21.
     12,   3.62222195,  0.970571399,          21.
     13,       2.8125,           0.,          21.
     14,        1.875,           0.,          21.
     15,       0.9375,           0.,          21.
     16,           0.,           0.,          21.
     17,      -0.9375,           0.,          21.
     18,       -1.875,           0.,          21.
     19,      -2.8125,           0.,          21.
     20,           0.,         3.75,          21.
** ... 3283 like lines cut
*Element, type=C3D20R
  1,   26,   19,    2,    3,   67,   60,   43,   44,  906,  905,  904,  903,  907,  908,  909,
      910,  912,  911,  913,  914
  2,   12,   41,   40,   11,   53,   82,   81,   52,  918,  917,  916,  915,  919,  920,  921,
      922,  924,  923,  925,  926
  3,   41,   13,   14,   21,   82,   54,   55,   62,  930,  929,  928,  927,  931,  932,  933,
      934,  923,  935,  936,  937
  4,   38,   27,   21,   22,   79,   68,   62,   63,  941,  940,  939,  938,  942,  943,  944,
      945,  947,  946,  937,  948
  5,   38,   29,   32,   27,   79,   70,   73,   68,  951,  950,  949,  941,  952,  953,  954,
      942,  947,  955,  956,  946
  6,   26,   34,   37,   25,   67,   75,   78,   66,  960,  959,  958,  957,  961,  962,  963,
      964,  912,  965,  966,  967
  7,    1,   13,   41,   12,   42,   54,   82,   53,  969,  930,  918,  968,  970,  931,  919,
      971,  972,  935,  923,  924
  8,   15,   22,   21,   14,   56,   63,   62,   55,  974,  939,  928,  973,  975,  944,  933,
      976,  977,  948,  937,  936
  9,   16,   23,   22,   15,   57,   64,   63,   56,  980,  979,  974,  978,  981,  982,  975,
      983,  985,  984,  948,  977
 10,   16,   17,   24,   23,   57,   58,   65,   64,  988,  987,  986,  980,  989,  990,  991,
      981,  985,  992,  993,  984
** ... 1240 like lines cut
*Nset, nset=Set-1, generate
    1,  3303,     1
*Elset, elset=Set-1, generate
   1,  630,    1
** Section: Section-1
*Solid Section, elset=Set-1, material=pile
,
*End Part
**  
*Part, name=soil
*Node
      1,   3.75479102,           0.,          40.
      2,  -3.75479102,           0.,          40.
      3,   3.25174451,   1.87739551,          40.
      4,   1.87739551,   3.25174451,          40.
      5,           0.,   3.75479102,          40.
      6,  -1.87739551,   3.25174451,          40.
      7,  -3.25174451,   1.87739551,          40.
      8,   2.50319409,           0.,          40.
      9,   1.25159705,           0.,          40.
     10,           0.,           0.,          40.
     11,  -1.25159705,           0.,          40.
     12,  -2.50319409,           0.,          40.
     13,   3.62684965,  0.971811414,          40.
     14,   2.65503812,   2.65503812,          40.
     15,  0.971811414,   3.62684965,          40.
     16, -0.971811414,   3.62684965,          40.
     17,  -2.65503812,   2.65503812,          40.
     18,  -3.62684965,  0.971811414,          40.
     19,   2.48616052,   1.49004829,          40.
     20,   1.45010829,   2.61492658,          40.
** ... 32882 like lines cut
*Element, type=C3D20R
  1,     4,    14,    22,    20,    39,    49,    57,    55,  8555,  8554,  8553,  8552,  8556,  8557,  8558,
      8559,  8561,  8560,  8562,  8563
  2,    28,    33,    32,    35,    63,    68,    67,    70,  8567,  8566,  8565,  8564,  8568,  8569,  8570,
      8571,  8573,  8572,  8574,  8575
  3,    24,    26,    27,    23,    59,    61,    62,    58,  8579,  8578,  8577,  8576,  8580,  8581,  8582,
      8583,  8585,  8584,  8586,  8587
  4,    17,     6,    23,    21,    52,    41,    58,    56,  8591,  8590,  8589,  8588,  8592,  8593,  8594,
      8595,  8597,  8596,  8587,  8598
  5,     8,    31,    13,     1,    43,    66,    48,    36,  8602,  8601,  8600,  8599,  8603,  8604,  8605,
      8606,  8608,  8607,  8609,  8610
  6,     9,    30,    31,     8,    44,    65,    66,    43,  8613,  8612,  8602,  8611,  8614,  8615,  8603,
      8616,  8618,  8617,  8607,  8608
  7,    26,    11,    12,    27,    61,    46,    47,    62,  8621,  8620,  8619,  8578,  8622,  8623,  8624,
      8581,  8584,  8625,  8626,  8586
  8,    22,    14,     3,    19,    57,    49,    38,    54,  8554,  8629,  8628,  8627,  8557,  8630,  8631,
      8632,  8562,  8560,  8633,  8634
  9,    35,    32,    20,    22,    70,    67,    55,    57,  8565,  8636,  8553,  8635,  8570,  8637,  8558,
      8638,  8575,  8574,  8563,  8562
 10,     5,    33,    24,    16,    40,    68,    59,    51,  8642,  8641,  8640,  8639,  8643,  8644,  8645,
      8646,  8647,  8572,  8585,  8648
** ... 14604 like lines cut
*Nset, nset=soil1
     1,     2,     3,     4,     5,     6,     7,    13,    14,    15,    16,    17,    18,  1121,  1124,  1129
  1131,  1133,  1134,  1135,  1137,  1138,  1139,  1140,  1141,  1142,  1143,  1144,  1145,  1146,  1147,  1148
  1149,  1150,  1151,  1152,  1153,  1189,  1194,  1195,  1196,  1205,  1207,  1209,  1220,  1222,  1224,  1226
  1228,  1230,  1233,  1234,  1235,  1236,  1237,  1238,  1239,  1245,  1246,  1247,  1248,  1249,  1259,  1263
  1264,  1266,  1271,  1272,  1274,  1277,  1284,  1285,  1286,  1287,  1288,  1290,  1291,  1292,  1298,  1300
  1301,  1302,  1303,  1304,  1305,  1307,  1313,  1314,  1315,  1316,  1317,  1318,  1319,  1320,  1321,  1322
  1323,  1324,  1325,  1326,  1327,  1328,  1329,  1330,  1331,  1332,  1333,  1334,  1335,  1336,  1337,  1338
  1339,  1340,  1341,  1342,  1343,  1344,  1345,  1346,  1347,  1348,  1349,  1350,  1351,  2642,  2643,  2647
  2649,  2652,  2655,  2659,  2661,  2666,  2667,  2669,  2670,  2672,  2673,  2674,  2675,  2676,  2677,  2678
  2679,  2683,  2684,  2689,  2692,  2693,  2700,  2701,  2702,  2703,  2704,  2705,  2706,  2707,  2708,  2709
  2710,  2711,  2712,  2713,  2714,  2715,  2716,  2717,  2718,  2719,  2720,  2721,  2722,  2741,  2742,  2743
  2745,  2746,  2747,  2756,  2757,  2760,  2762,  2773,  2774,  2775,  2777,  2781,  2782,  2784,  2797,  2798
  2799,  2801,  2808,  2813,  2817,  2821,  2822,  2831,  2832,  2836,  2837,  2839,  2840,  2847,  2848,  2849
  2851,  2856,  2858,  2859,  2860,  2861,  2869,  2870,  2873,  2875,  2891,  2892,  2893,  4132,  4133,  4134
  4135,  4136,  4137,  4138,  4139,  4140,  4141,  4142,  4143,  4144,  4145,  4146,  4147,  4148,  4149,  4150
  4151,  4152,  4153,  4154,  4155,  4156,  4157,  4158,  4159,  4160,  4161,  4162,  4163,  4164,  4165,  4166
  4167,  4168,  4169,  4170,  4171,  4172,  4173,  4174,  4175,  4176,  4177,  4178,  4179,  4180,  4181,  4182
  4183,  4184,  4185,  4186,  4187,  4188,  4189,  4190,  4191,  4192,  4193,  4194,  4195,  4196,  4197,  4198
  4199,  4200,  4201,  4202,  4203,  4204,  4205,  4206,  4207,  4208,  4209,  4210,  4211,  4212,  4213,  4214
  4215,  4216,  4217,  4218,  4219,  4220,  4221,  4222,  4223,  4224,  4225,  4226,  4227,  4228,  4229,  4230
** ... 1088 like lines cut
*Elset, elset=soil1, generate
 3473,  7312,     1
*Nset, nset=soil2
     1,     2,     3,     4,     5,     6,     7,     8,     9,    10,    11,    12,    13,    14,    15,    16
    17,    18,    19,    20,    21,    22,    23,    24,    25,    26,    27,    28,    29,    30,    31,    32
    33,    34,    35,    36,    37,    38,    39,    40,    41,    42,    43,    44,    45,    46,    47,    48
    49,    50,    51,    52,    53,    54,    55,    56,    57,    58,    59,    60,    61,    62,    63,    64
    65,    66,    67,    68,    69,    70,    71,    72,    73,    74,    75,    76,    77,    78,    79,    80
    81,    82,    83,    84,    85,    86,    87,    88,    89,    90,    91,    92,    93,    94,    95,    96
    97,    98,    99,   100,   101,   102,   103,   104,   105,   106,   107,   108,   109,   110,   111,   112
   113,   114,   115,   116,   117,   118,   119,   120,   121,   122,   123,   124,   125,   126,   127,   128
   129,   130,   131,   132,   133,   134,   135,   136,   137,   138,   139,   140,   141,   142,   143,   144
   145,   146,   147,   148,   149,   150,   151,   152,   153,   154,   155,   156,   157,   158,   159,   160
   161,   162,   163,   164,   165,   166,   167,   168,   169,   170,   171,   172,   173,   174,   175,   176
   177,   178,   179,   180,   181,   182,   183,   184,   185,   186,   187,   188,   189,   190,   191,   192
   193,   194,   195,   196,   197,   198,   199,   200,   201,   202,   203,   204,   205,   206,   207,   208
   209,   210,   211,   212,   213,   214,   215,   216,   217,   218,   219,   220,   221,   222,   223,   224
   225,   226,   227,   228,   229,   230,   231,   232,   233,   234,   235,   236,   237,   238,   239,   240
   241,   242,   243,   244,   245,   246,   247,   248,   249,   250,   251,   252,   253,   254,   255,   256
   257,   258,   259,   260,   261,   262,   263,   264,   265,   266,   267,   268,   269,   270,   271,   272
   273,   274,   275,   276,   277,   278,   279,   280,   281,   282,   283,   284,   285,   286,   287,   288
   289,   290,   291,   292,   293,   294,   295,   296,   297,   298,   299,   300,   301,   302,   303,   304
   305,   306,   307,   308,   309,   310,   311,   312,   313,   314,   315,   316,   317,   318,   319,   320
** ... 969 like lines cut
*Elset, elset=soil2, generate
    1,  3472,     1
*Nset, nset=Set-47, generate
     1,  32902,      1
*Elset, elset=Set-47, generate
    1,  7312,     1
*Nset, nset=soil1a
     2,     5,     6,     7,    16,    17,    18,  1121,  1124,  1129,  1131,  1133,  1134,  1135,  1137,  1138
  1139,  1140,  1141,  1142,  1143,  1144,  1145,  1146,  1147,  1148,  1149,  1150,  1151,  1152,  1153,  1189
  1194,  1195,  1196,  1205,  1207,  1209,  1220,  1222,  1224,  1226,  1228,  1230,  1233,  1234,  1235,  1236
  1237,  1238,  1239,  1245,  1246,  1247,  1248,  1249,  1259,  1263,  1264,  1266,  1271,  1272,  1274,  1277
  1284,  1285,  1286,  1287,  1288,  1290,  1291,  1292,  1298,  1300,  1301,  1302,  1303,  1304,  1305,  1307
  1313,  1314,  1315,  1316,  1317,  1318,  1319,  1320,  1321,  1322,  1323,  1324,  1325,  1326,  1327,  1328
  1329,  1330,  1331,  1332,  1333,  1334,  1335,  1336,  1337,  1338,  1339,  1340,  1341,  1342,  1343,  1344
  1345,  1346,  1347,  1348,  1349,  1350,  1351,  4132,  4133,  4135,  4138,  4139,  4140,  4141,  4142,  4144
  4153,  4154,  4155,  4158,  4160,  4162,  4429,  4430,  4431,  4432,  4433,  4434,  4435,  4436,  4437,  4438
  4439,  4440,  4441,  4442,  4443,  4444,  4445,  4446,  4447,  4448,  4449,  4450,  4451,  4452,  4453,  4454
  4455,  4456,  4457,  4458,  4459,  4460,  4461,  4462,  4463,  4464,  4465,  4466,  4467,  4468,  4469,  4470
  4471,  4472,  4473,  4474,  4475,  4476,  4477,  4478,  4479,  4480,  4481,  4482,  4483,  4484,  4485,  4486
  4487,  4488,  4489,  4490,  4491,  4492,  4493,  4494,  4495,  4496,  4497,  4498,  4499,  4500,  4501,  4502
  4503,  4504,  4505,  4506,  4507,  4508,  4509,  4510,  4511,  4512,  4513,  4514,  4515,  4516,  4517,  4518
  4519,  4520,  4521,  4522,  4523,  4524,  4525,  4526,  4527,  4528,  4529,  4530,  4531,  4532,  4533,  4534
  4535,  4536,  4537,  4538,  4539,  4540,  4541,  4542,  4543,  4544,  4545,  4546,  4547,  4548,  4549,  4550
  4551,  4552,  4553,  4554,  4555,  4556,  4557,  4558,  4559,  4560,  4561,  4562,  4563,  4564,  4565,  4566
  4567,  4568,  4569,  4570,  4571,  4572,  4573,  4574,  4575,  4576,  4577,  4578,  4579,  4580,  4581,  4582
  4583,  4584,  4585,  4586,  4587,  4588,  4589,  4590,  4591,  4592,  4593,  4594,  4595,  4596,  4597,  4598
  4599,  4600,  4601,  4602,  4603,  4604,  4605,  4606,  4607,  4608,  4609,  4610,  4611,  4612,  4613,  4614
** ... 566 like lines cut
*Elset, elset=soil1a, generate
 5393,  7312,     1
*Nset, nset=soil1b
     1,     3,     4,     5,    13,    14,    15,  1137,  1138,  1139,  1140,  1141,  1142,  1143,  1144,  1145
  1146,  1147,  1148,  1195,  1205,  1220,  1290,  2642,  2643,  2647,  2649,  2652,  2655,  2659,  2661,  2666
  2667,  2669,  2670,  2672,  2673,  2674,  2675,  2676,  2677,  2678,  2679,  2683,  2684,  2689,  2692,  2693
  2700,  2701,  2702,  2703,  2704,  2705,  2706,  2707,  2708,  2709,  2710,  2711,  2712,  2713,  2714,  2715
  2716,  2717,  2718,  2719,  2720,  2721,  2722,  2741,  2742,  2743,  2745,  2746,  2747,  2756,  2757,  2760
  2762,  2773,  2774,  2775,  2777,  2781,  2782,  2784,  2797,  2798,  2799,  2801,  2808,  2813,  2817,  2821
  2822,  2831,  2832,  2836,  2837,  2839,  2840,  2847,  2848,  2849,  2851,  2856,  2858,  2859,  2860,  2861
  2869,  2870,  2873,  2875,  2891,  2892,  2893,  4132,  4133,  4134,  4135,  4136,  4137,  4138,  4139,  4140
  4141,  4142,  4143,  4144,  4145,  4146,  4147,  4148,  4149,  4150,  4151,  4152,  4153,  4154,  4155,  4156
  4157,  4158,  4159,  4160,  4161,  4162,  4163,  4164,  4165,  4166,  4167,  4168,  4169,  4170,  4171,  4172
  4173,  4174,  4175,  4176,  4177,  4178,  4179,  4180,  4181,  4182,  4183,  4184,  4185,  4186,  4187,  4188
  4189,  4190,  4191,  4192,  4193,  4194,  4195,  4196,  4197,  4198,  4199,  4200,  4201,  4202,  4203,  4204
  4205,  4206,  4207,  4208,  4209,  4210,  4211,  4212,  4213,  4214,  4215,  4216,  4217,  4218,  4219,  4220
  4221,  4222,  4223,  4224,  4225,  4226,  4227,  4228,  4229,  4230,  4231,  4232,  4233,  4234,  4235,  4236
  4237,  4238,  4239,  4240,  4241,  4242,  4243,  4244,  4245,  4246,  4247,  4248,  4249,  4250,  4251,  4252
  4253,  4254,  4255,  4256,  4257,  4258,  4259,  4260,  4261,  4262,  4263,  4264,  4265,  4266,  4267,  4268
  4269,  4270,  4271,  4272,  4273,  4274,  4275,  4276,  4277,  4278,  4279,  4280,  4281,  4282,  4283,  4284
  4285,  4286,  4287,  4288,  4289,  4290,  4291,  4292,  4293,  4294,  4295,  4296,  4297,  4298,  4299,  4300
  4301,  4302,  4303,  4304,  4305,  4306,  4307,  4308,  4309,  4310,  4311,  4312,  4313,  4314,  4315,  4316
  4317,  4318,  4319,  4320,  4321,  4322,  4323,  4324,  4325,  4326,  4327,  4328,  4329,  4330,  4331,  4332
** ... 566 like lines cut
*Elset, elset=soil1b, generate
 3473,  5392,     1
*Nset, nset=soil2a
     1,     2,     3,     4,     5,     6,     7,    13,    14,    15,    16,    17,    18,    36,    37,    38
    39,    40,    41,    42,    48,    49,    50,    51,    52,    53,    71,    72,    73,    74,    75,    76
    77,    83,    84,    85,    86,    87,    88,   106,   107,   108,   109,   110,   111,   112,   118,   119
   120,   121,   122,   123,   141,   142,   143,   144,   145,   146,   147,   153,   154,   155,   156,   157
   158,   176,   177,   178,   179,   180,   181,   182,   188,   189,   190,   191,   192,   193,   211,   212
   213,   214,   215,   216,   217,   223,   224,   225,   226,   227,   228,   246,   247,   248,   249,   250
   251,   252,   258,   259,   260,   261,   262,   263,   281,   282,   283,   284,   285,   286,   287,   293
   294,   295,   296,   297,   298,   316,   317,   318,   319,   320,   321,   322,   328,   329,   330,   331
   332,   333,   351,   352,   353,   354,   355,   356,   357,   363,   364,   365,   366,   367,   368,   386
   387,   388,   389,   390,   391,   392,   398,   399,   400,   401,   402,   403,   421,   422,   423,   424
   425,   426,   427,   433,   434,   435,   436,   437,   438,   456,   457,   458,   459,   460,   461,   462
   468,   469,   470,   471,   472,   473,   491,   492,   493,   494,   495,   496,   497,   503,   504,   505
   506,   507,   508,   526,   527,   528,   529,   530,   531,   532,   538,   539,   540,   541,   542,   543
   561,   562,   563,   564,   565,   566,   567,   573,   574,   575,   576,   577,   578,   596,   597,   598
   599,   600,   601,   602,   603,   604,   605,   606,   607,   608,   609,   610,   611,   612,   613,   614
   615,   616,   617,   618,   619,   620,   621,   622,   623,   624,   625,   626,   627,   628,   629,   630
   631,   632,   633,   634,   635,   636,   637,   638,   639,   640,   641,   642,   643,   644,   645,   646
   647,   648,   649,   650,   651,   652,   653,   654,   655,   656,   657,   658,   659,   660,   661,   662
   663,   664,   665,   666,   667,   668,   669,   670,   671,   672,   673,   674,   675,   676,   677,   678
   679,   680,   681,   682,   683,   684,   685,   686,   687,   688,   689,   690,   691,   692,   693,   694
** ... 874 like lines cut
*Elset, elset=soil2a, generate
  401,  3472,     1
** Section: Section-2
*Solid Section, elset=Set-47, material=soil
,
*End Part
**  
**
** ASSEMBLY
**
*Assembly, name=Assembly
**  
*Instance, name=pile-1, part=pile
          0.,           0.,          40.
*End Instance
**  
*Instance, name=soil-1, part=soil
*End Instance
**  
*Nset, nset="ALL NODES", instance=soil-1, generate
     1,  32902,      1
*Elset, elset=ALLELE, instance=soil-1, generate
    1,  7312,     1
*Nset, nset=Set-1, instance=pile-1, generate
    1,  3303,     1
*Nset, nset=Set-1, instance=soil-1, generate
     1,  32902,      1
*Elset, elset=Set-1, instance=pile-1, generate
   1,  630,    1
*Elset, elset=Set-1, instance=soil-1, generate
    1,  7312,     1
*Nset, nset=Set-2, instance=pile-1
 2,
*Nset, nset=Set-3, instance=soil-1
     1,     2,     3,     4,     5,     6,     7,    13,    14,    15,    16,    17,    18,    36,    37,    38
    39,    40,    41,    42,    48,    49,    50,    51,    52,    53,    71,    72,    73,    74,    75,    76
    77,    83,    84,    85,    86,    87,    88,   106,   107,   108,   109,   110,   111,   112,   118,   119
   120,   121,   122,   123,   141,   142,   143,   144,   145,   146,   147,   153,   154,   155,   156,   157
   158,   176,   177,   178,   179,   180,   181,   182,   188,   189,   190,   191,   192,   193,   211,   212
   213,   214,   215,   216,   217,   223,   224,   225,   226,   227,   228,   246,   247,   248,   249,   250
   251,   252,   258,   259,   260,   261,   262,   263,   281,   282,   283,   284,   285,   286,   287,   293
   294,   295,   296,   297,   298,   316,   317,   318,   319,   320,   321,   322,   328,   329,   330,   331
   332,   333,   351,   352,   353,   354,   355,   356,   357,   363,   364,   365,   366,   367,   368,   386
   387,   388,   389,   390,   391,   392,   398,   399,   400,   401,   402,   403,   421,   422,   423,   424
   425,   426,   427,   433,   434,   435,   436,   437,   438,   456,   457,   458,   459,   460,   461,   462
   468,   469,   470,   471,   472,   473,   491,   492,   493,   494,   495,   496,   497,   503,   504,   505
   506,   507,   508,   526,   527,   528,   529,   530,   531,   532,   538,   539,   540,   541,   542,   543
   561,   562,   563,   564,   565,   566,   567,   573,   574,   575,   576,   577,   578,   596,   597,   598
   599,   600,   601,   602,   603,   604,   605,   606,   607,   608,   609,   610,   611,   612,   613,   614
   615,   616,   617,   618,   619,   620,   621,   622,   623,   624,   625,   626,   627,   628,   629,   630
   631,   632,   633,   634,   635,   636,   637,   638,   639,   640,   641,   642,   643,   644,   645,   646
   647,   648,   649,   650,   651,   652,   653,   654,   655,   656,   657,   658,   659,   660,   661,   662
   663,   664,   665,   666,   667,   668,   669,   670,   671,   672,   673,   674,   675,   676,   677,   678
   679,   680,   681,   682,   683,   684,   685,   686,   687,   688,   689,   690,   691,   692,   693,   694
** ... 1942 like lines cut
*Elset, elset=Set-3, instance=soil-1, generate
  401,  7312,     1
*Nset, nset=Set-4, instance=soil-1
   561,   562,   563,   564,   565,   566,   567,   573,   574,   575,   576,   577,   578,   596,   597,   598
   599,   600,   601,   602,   603,   604,   605,   606,   607,   608,   609,   610,   611,   612,   613,   614
   615,   616,   617,   618,   619,   620,   621,   622,   623,   624,   625,   626,   627,   628,   629,   630
   631,   632,   633,   634,   635,   636,   637,   638,   639,   640,   641,   642,   643,   644,   645,   646
   647,   648,   649,   650,   651,   652,   653,   654,   655,   656,   657,   658,   659,   660,   661,   662
   663,   664,   665,   666,   667,   668,   669,  1120,  1122,  1123,  1125,  1126,  1127,  1128,  1130,  1132
  1133,  1136,  1149,  1150,  1151,  1152,  1153,  1154,  1155,  1156,  1157,  1158,  1159,  1160,  1161,  1162
  1163,  1164,  1165,  1166,  1167,  1168,  1169,  1170,  1171,  1172,  1173,  1174,  1175,  1176,  1177,  1178
  1179,  1180,  1181,  1182,  1183,  1184,  1185,  1186,  1187,  1188,  1190,  1191,  1192,  1193,  1197,  1198
  1199,  1200,  1201,  1202,  1203,  1204,  1206,  1208,  1210,  1211,  1212,  1213,  1214,  1215,  1216,  1217
  1218,  1219,  1220,  1221,  1223,  1225,  1227,  1229,  1231,  1232,  1240,  1241,  1242,  1243,  1244,  1250
  1251,  1252,  1253,  1254,  1255,  1256,  1257,  1258,  1260,  1261,  1262,  1265,  1267,  1268,  1269,  1270
  1273,  1275,  1276,  1278,  1279,  1280,  1281,  1282,  1283,  1289,  1293,  1294,  1295,  1296,  1297,  1299
  1306,  1308,  1309,  1310,  1311,  1312,  1352,  1353,  1354,  1355,  1356,  1357,  1358,  1359,  1360,  1361
  1362,  1363,  1364,  1365,  1366,  1367,  1368,  1369,  1370,  1371,  1372,  1373,  1374,  2641,  2644,  2645
  2646,  2648,  2650,  2651,  2653,  2654,  2656,  2657,  2658,  2660,  2662,  2663,  2664,  2665,  2668,  2671
  2680,  2681,  2682,  2685,  2686,  2687,  2688,  2690,  2691,  2694,  2695,  2696,  2697,  2698,  2699,  2718
  2719,  2720,  2721,  2722,  2723,  2724,  2725,  2726,  2727,  2728,  2729,  2730,  2731,  2732,  2733,  2734
  2735,  2736,  2737,  2738,  2739,  2740,  2741,  2744,  2748,  2749,  2750,  2751,  2752,  2753,  2754,  2755
  2758,  2759,  2761,  2763,  2764,  2765,  2766,  2767,  2768,  2769,  2770,  2771,  2772,  2776,  2778,  2779
** ... 106 like lines cut
*Elset, elset=Set-4, instance=soil-1
  416,  432,  448,  464,  480,  496,  512,  528,  544,  560,  576,  592,  608,  624,  640,  656
  672,  688,  704,  720,  736,  752,  768,  784,  800,  816,  832,  848,  864,  880,  896,  912
  928,  944,  960,  976,  992, 1008, 1024, 1040, 1056, 1072, 1088, 1104, 1120, 1136, 1152, 1168
 1184, 1200, 1216, 1232, 1248, 1264, 1280, 1296, 1312, 1328, 1344, 1360, 1376, 1392, 1408, 1424
 1440, 1456, 1472, 1488, 1504, 1520, 1536, 1552, 1568, 1584, 1600, 1616, 1632, 1648, 1664, 1680
 1696, 1712, 1728, 1744, 1760, 1776, 1792, 1808, 1824, 1840, 1841, 1842, 1843, 1844, 1845, 1846
 1847, 1848, 1849, 1850, 1851, 1852, 1853, 1854, 1855, 1856, 1857, 1858, 1859, 1860, 1861, 1862
 1863, 1864, 1865, 1866, 1867, 1868, 1869, 1870, 1871, 1872, 1873, 1874, 1875, 1876, 1877, 1878
 1879, 1880, 1881, 1882, 1883, 1884, 1885, 1886, 1887, 1888, 1889, 1890, 1891, 1892, 1893, 1894
 1895, 1896, 1897, 1898, 1899, 1900, 1901, 1902, 1903, 1904, 1905, 1906, 1907, 1908, 1909, 1910
 1911, 1912, 1913, 1914, 1915, 1916, 1917, 1918, 1919, 1920, 1921, 1922, 1923, 1924, 1925, 1926
 1927, 1928, 1929, 1930, 1931, 1932, 1933, 1934, 1935, 1936, 1937, 1953, 1969, 1985, 2001, 2017
 2033, 2049, 2065, 2081, 2097, 2113, 2129, 2145, 2161, 2177, 2193, 2209, 2225, 2241, 2257, 2273
 2289, 2305, 2321, 2337, 2353, 2369, 2385, 2401, 2417, 2433, 2449, 2465, 2481, 2497, 2513, 2529
 2545, 2561, 2577, 2593, 2609, 2625, 2641, 2657, 2673, 2689, 2705, 2721, 2737, 2753, 2769, 2785
 2801, 2817, 2833, 2849, 2865, 2881, 2897, 2913, 2929, 2945, 2961, 2977, 2993, 3009, 3025, 3041
 3057, 3073, 3089, 3105, 3121, 3137, 3153, 3169, 3185, 3201, 3217, 3233, 3249, 3265, 3281, 3297
 3313, 3329, 3345, 3361, 3377, 3378, 3379, 3380, 3381, 3382, 3383, 3384, 3385, 3386, 3387, 3388
 3389, 3390, 3391, 3392, 3393, 3394, 3395, 3396, 3397, 3398, 3399, 3400, 3401, 3402, 3403, 3404
 3405, 3406, 3407, 3408, 3409, 3410, 3411, 3412, 3413, 3414, 3415, 3416, 3417, 3418, 3419, 3420
** ... 19 like lines cut
*Nset, nset=Set-5, instance=pile-1
    1,    2,   13,   14,   15,   16,   17,   18,   19,   42,   43,   54,   55,   56,   57,   58
   59,   60,   83,   84,   95,   96,   97,   98,   99,  100,  101,  124,  125,  136,  137,  138
  139,  140,  141,  142,  165,  166,  177,  178,  179,  180,  181,  182,  183,  206,  207,  218
  219,  220,  221,  222,  223,  224,  247,  248,  259,  260,  261,  262,  263,  264,  265,  288
  289,  300,  301,  302,  303,  304,  305,  306,  329,  330,  341,  342,  343,  344,  345,  346
  347,  370,  371,  382,  383,  384,  385,  386,  387,  388,  411,  412,  423,  424,  425,  426
  427,  428,  429,  452,  453,  464,  465,  466,  467,  468,  469,  470,  493,  494,  505,  506
  507,  508,  509,  510,  511,  534,  535,  546,  547,  548,  549,  550,  551,  552,  575,  576
  587,  588,  589,  590,  591,  592,  593,  616,  617,  628,  629,  630,  631,  632,  633,  634
  657,  658,  669,  670,  671,  672,  673,  674,  675,  698,  699,  710,  711,  712,  713,  714
  715,  716,  739,  740,  751,  752,  753,  754,  755,  756,  757,  780,  781,  792,  793,  794
  795,  796,  797,  798,  821,  822,  833,  834,  835,  836,  837,  838,  839,  862,  863,  874
  875,  876,  877,  878,  879,  880,  905,  908,  911,  913,  929,  932,  935,  936,  969,  970
  972,  973,  976,  977,  978,  983,  985,  988,  989,  992,  994,  999, 1000, 1001, 1002, 1085
 1088, 1090, 1101, 1104, 1105, 1126, 1128, 1130, 1131, 1134, 1136, 1137, 1140, 1144, 1145, 1146
 1196, 1199, 1201, 1212, 1215, 1216, 1237, 1239, 1241, 1242, 1245, 1247, 1248, 1251, 1255, 1256
 1257, 1307, 1310, 1312, 1323, 1326, 1327, 1348, 1350, 1352, 1353, 1356, 1358, 1359, 1362, 1366
 1367, 1368, 1418, 1421, 1423, 1434, 1437, 1438, 1459, 1461, 1463, 1464, 1467, 1469, 1470, 1473
 1477, 1478, 1479, 1529, 1532, 1534, 1545, 1548, 1549, 1570, 1572, 1574, 1575, 1578, 1580, 1581
 1584, 1588, 1589, 1590, 1640, 1643, 1645, 1656, 1659, 1660, 1681, 1683, 1685, 1686, 1689, 1691
** ... 16 like lines cut
*Nset, nset=Set-5, instance=soil-1
     1,     2,     8,     9,    10,    11,    12,    36,    37,    43,    44,    45,    46,    47,    71,    72
    78,    79,    80,    81,    82,   106,   107,   113,   114,   115,   116,   117,   141,   142,   148,   149
   150,   151,   152,   176,   177,   183,   184,   185,   186,   187,   211,   212,   218,   219,   220,   221
   222,   246,   247,   253,   254,   255,   256,   257,   281,   282,   288,   289,   290,   291,   292,   316
   317,   323,   324,   325,   326,   327,   351,   352,   358,   359,   360,   361,   362,   386,   387,   393
   394,   395,   396,   397,   421,   422,   428,   429,   430,   431,   432,   456,   457,   463,   464,   465
   466,   467,   491,   492,   498,   499,   500,   501,   502,   526,   527,   533,   534,   535,   536,   537
   561,   562,   568,   569,   570,   571,   572,   895,   896,   897,   898,   899,   900,   901,   902,   903
   904,   905,   906,   907,   908,   909,   910,   911,   912,   913,   914,   915,   916,   917,   918,   919
   920,   921,   922,   923,   924,   925,   926,   927,   928,   929,   930,   931,   932,   933,   934,   935
   936,   937,   938,   939,   940,   941,   942,   943,   944,   945,   946,   947,   948,   949,   950,   951
   952,   953,   954,   955,   956,   957,   958,   959,   960,   961,   962,   963,   964,   965,   966,   967
   968,   969,   970,   971,   972,   973,   974,   975,   976,   977,   978,   979,   980,   981,   982,   983
   984,   985,   986,   987,   988,   989,   990,   991,   992,   993,   994,   995,   996,   997,   998,   999
  1000,  1001,  1002,  1003,  1004,  1005,  1006,  1007,  1008,  1009,  1010,  1011,  1012,  1013,  1014,  1015
  1016,  1017,  1018,  1019,  1020,  1021,  1022,  1023,  1024,  1025,  1026,  1027,  1028,  1029,  1030,  1031
  1032,  1033,  1034,  1035,  1036,  1037,  1038,  1039,  1040,  1041,  1042,  1043,  1044,  1045,  1046,  1047
  1048,  1049,  1050,  1051,  1052,  1053,  1054,  1055,  1056,  1057,  1058,  1059,  1060,  1061,  1062,  1063
  1064,  1065,  1066,  1067,  1068,  1069,  1070,  1071,  1072,  1073,  1074,  1075,  1076,  1077,  1078,  1079
  1080,  1081,  1082,  1083,  1084,  1085,  1086,  1087,  1088,  1089,  1090,  1091,  1092,  1093,  1094,  1095
** ... 226 like lines cut
*Elset, elset=Set-5, instance=pile-1
   1,   3,   7,   8,   9,  10,  11,  12,  31,  33,  37,  38,  39,  40,  41,  42
  61,  63,  67,  68,  69,  70,  71,  72,  91,  93,  97,  98,  99, 100, 101, 102
 121, 123, 127, 128, 129, 130, 131, 132, 151, 153, 157, 158, 159, 160, 161, 162
 181, 183, 187, 188, 189, 190, 191, 192, 211, 213, 217, 218, 219, 220, 221, 222
 241, 243, 247, 248, 249, 250, 251, 252, 271, 273, 277, 278, 279, 280, 281, 282
 301, 303, 307, 308, 309, 310, 311, 312, 331, 333, 337, 338, 339, 340, 341, 342
 361, 363, 367, 368, 369, 370, 371, 372, 391, 393, 397, 398, 399, 400, 401, 402
 421, 423, 427, 428, 429, 430, 431, 432, 451, 453, 457, 458, 459, 460, 461, 462
 481, 483, 487, 488, 489, 490, 491, 492, 511, 513, 517, 518, 519, 520, 521, 522
 541, 543, 547, 548, 549, 550, 551, 552, 571, 573, 577, 578, 579, 580, 581, 582
 601, 603, 607, 608, 609, 610, 611, 612
*Elset, elset=Set-5, instance=soil-1
    5,    6,    7,   17,   23,   24,   30,   31,   32,   42,   48,   49,   55,   56,   57,   67
   73,   74,   80,   81,   82,   92,   98,   99,  105,  106,  107,  117,  123,  124,  130,  131
  132,  142,  148,  149,  155,  156,  157,  167,  173,  174,  180,  181,  182,  192,  198,  199
  205,  206,  207,  217,  223,  224,  230,  231,  232,  242,  248,  249,  255,  256,  257,  267
  273,  274,  280,  281,  282,  292,  298,  299,  305,  306,  307,  317,  323,  324,  330,  331
  332,  342,  348,  349,  355,  356,  357,  367,  373,  374,  380,  381,  382,  392,  398,  399
  481,  482,  483,  484,  485,  486,  487,  488,  489,  490,  491,  492,  493,  494,  495,  496
  577,  578,  579,  580,  581,  582,  583,  584,  585,  586,  587,  588,  589,  590,  591,  592
  673,  674,  675,  676,  677,  678,  679,  680,  681,  682,  683,  684,  685,  686,  687,  688
  769,  770,  771,  772,  773,  774,  775,  776,  777,  778,  779,  780,  781,  782,  783,  784
  865,  866,  867,  868,  869,  870,  871,  872,  873,  874,  875,  876,  877,  878,  879,  880
  961,  962,  963,  964,  965,  966,  967,  968,  969,  970,  971,  972,  973,  974,  975,  976
 1057, 1058, 1059, 1060, 1061, 1062, 1063, 1064, 1065, 1066, 1067, 1068, 1069, 1070, 1071, 1072
 1153, 1154, 1155, 1156, 1157, 1158, 1159, 1160, 1161, 1162, 1163, 1164, 1165, 1166, 1167, 1168
 1249, 1250, 1251, 1252, 1253, 1254, 1255, 1256, 1257, 1258, 1259, 1260, 1261, 1262, 1263, 1264
 1345, 1346, 1347, 1348, 1349, 1350, 1351, 1352, 1353, 1354, 1355, 1356, 1357, 1358, 1359, 1360
 1441, 1442, 1443, 1444, 1445, 1446, 1447, 1448, 1449, 1450, 1451, 1452, 1453, 1454, 1455, 1456
 1537, 1538, 1539, 1540, 1541, 1542, 1543, 1544, 1545, 1546, 1547, 1548, 1549, 1550, 1551, 1552
 1633, 1634, 1635, 1636, 1637, 1638, 1639, 1640, 1641, 1642, 1643, 1644, 1645, 1646, 1647, 1648
 1729, 1730, 1731, 1732, 1733, 1734, 1735, 1736, 1737, 1738, 1739, 1740, 1741, 1742, 1743, 1744
** ... 58 like lines cut
*Nset, nset=Set-15, instance=soil-1
   561,   562,   563,   564,   565,   566,   567,   568,   569,   570,   571,   572,   573,   574,   575,   576
   577,   578,   579,   580,   581,   582,   583,   584,   585,   586,   587,   588,   589,   590,   591,   592
   593,   594,   595,   596,   597,   598,   599,   600,   601,   602,   603,   604,   605,   606,   607,   608
   609,   610,   611,   612,   613,   614,   615,   616,   617,   618,   619,   620,   621,   622,   623,   624
   625,   626,   627,   628,   629,   630,   631,   632,   633,   634,   635,   636,   637,   638,   639,   640
   641,   642,   643,   644,   645,   646,   647,   648,   649,   650,   651,   652,   653,   654,   655,   656
   657,   658,   659,   660,   661,   662,   663,   664,   665,   666,   667,   668,   669,  1120,  1122,  1123
  1125,  1126,  1127,  1128,  1130,  1132,  1133,  1136,  1149,  1150,  1151,  1152,  1153,  1154,  1155,  1156
  1157,  1158,  1159,  1160,  1161,  1162,  1163,  1164,  1165,  1166,  1167,  1168,  1169,  1170,  1171,  1172
  1173,  1174,  1175,  1176,  1177,  1178,  1179,  1180,  1181,  1182,  1183,  1184,  1185,  1186,  1187,  1188
  1190,  1191,  1192,  1193,  1197,  1198,  1199,  1200,  1201,  1202,  1203,  1204,  1206,  1208,  1210,  1211
  1212,  1213,  1214,  1215,  1216,  1217,  1218,  1219,  1220,  1221,  1223,  1225,  1227,  1229,  1231,  1232
  1240,  1241,  1242,  1243,  1244,  1250,  1251,  1252,  1253,  1254,  1255,  1256,  1257,  1258,  1260,  1261
  1262,  1265,  1267,  1268,  1269,  1270,  1273,  1275,  1276,  1278,  1279,  1280,  1281,  1282,  1283,  1289
  1293,  1294,  1295,  1296,  1297,  1299,  1306,  1308,  1309,  1310,  1311,  1312,  1352,  1353,  1354,  1355
  1356,  1357,  1358,  1359,  1360,  1361,  1362,  1363,  1364,  1365,  1366,  1367,  1368,  1369,  1370,  1371
  1372,  1373,  1374,  2641,  2644,  2645,  2646,  2648,  2650,  2651,  2653,  2654,  2656,  2657,  2658,  2660
  2662,  2663,  2664,  2665,  2668,  2671,  2680,  2681,  2682,  2685,  2686,  2687,  2688,  2690,  2691,  2694
  2695,  2696,  2697,  2698,  2699,  2718,  2719,  2720,  2721,  2722,  2723,  2724,  2725,  2726,  2727,  2728
  2729,  2730,  2731,  2732,  2733,  2734,  2735,  2736,  2737,  2738,  2739,  2740,  2741,  2744,  2748,  2749
** ... 110 like lines cut
*Elset, elset=Set-15, instance=soil-1
  376,  377,  378,  379,  380,  381,  382,  383,  384,  385,  386,  387,  388,  389,  390,  391
  392,  393,  394,  395,  396,  397,  398,  399,  400,  416,  432,  448,  464,  480,  496,  512
  528,  544,  560,  576,  592,  608,  624,  640,  656,  672,  688,  704,  720,  736,  752,  768
  784,  800,  816,  832,  848,  864,  880,  896,  912,  928,  944,  960,  976,  992, 1008, 1024
 1040, 1056, 1072, 1088, 1104, 1120, 1136, 1152, 1168, 1184, 1200, 1216, 1232, 1248, 1264, 1280
 1296, 1312, 1328, 1344, 1360, 1376, 1392, 1408, 1424, 1440, 1456, 1472, 1488, 1504, 1520, 1536
 1552, 1568, 1584, 1600, 1616, 1632, 1648, 1664, 1680, 1696, 1712, 1728, 1744, 1760, 1776, 1792
 1808, 1824, 1840, 1841, 1842, 1843, 1844, 1845, 1846, 1847, 1848, 1849, 1850, 1851, 1852, 1853
 1854, 1855, 1856, 1857, 1858, 1859, 1860, 1861, 1862, 1863, 1864, 1865, 1866, 1867, 1868, 1869
 1870, 1871, 1872, 1873, 1874, 1875, 1876, 1877, 1878, 1879, 1880, 1881, 1882, 1883, 1884, 1885
 1886, 1887, 1888, 1889, 1890, 1891, 1892, 1893, 1894, 1895, 1896, 1897, 1898, 1899, 1900, 1901
 1902, 1903, 1904, 1905, 1906, 1907, 1908, 1909, 1910, 1911, 1912, 1913, 1914, 1915, 1916, 1917
 1918, 1919, 1920, 1921, 1922, 1923, 1924, 1925, 1926, 1927, 1928, 1929, 1930, 1931, 1932, 1933
 1934, 1935, 1936, 1937, 1953, 1969, 1985, 2001, 2017, 2033, 2049, 2065, 2081, 2097, 2113, 2129
 2145, 2161, 2177, 2193, 2209, 2225, 2241, 2257, 2273, 2289, 2305, 2321, 2337, 2353, 2369, 2385
 2401, 2417, 2433, 2449, 2465, 2481, 2497, 2513, 2529, 2545, 2561, 2577, 2593, 2609, 2625, 2641
 2657, 2673, 2689, 2705, 2721, 2737, 2753, 2769, 2785, 2801, 2817, 2833, 2849, 2865, 2881, 2897
 2913, 2929, 2945, 2961, 2977, 2993, 3009, 3025, 3041, 3057, 3073, 3089, 3105, 3121, 3137, 3153
 3169, 3185, 3201, 3217, 3233, 3249, 3265, 3281, 3297, 3313, 3329, 3345, 3361, 3377, 3378, 3379
 3380, 3381, 3382, 3383, 3384, 3385, 3386, 3387, 3388, 3389, 3390, 3391, 3392, 3393, 3394, 3395
** ... 20 like lines cut
*Nset, nset=boundxyz, instance=soil-1
   561,   562,   563,   564,   565,   566,   567,   568,   569,   570,   571,   572,   573,   574,   575,   576
   577,   578,   579,   580,   581,   582,   583,   584,   585,   586,   587,   588,   589,   590,   591,   592
   593,   594,   595,   596,   597,   598,   599,   600,   601,   602,   603,   604,   605,   606,   607,   608
   609,   610,   611,   612,   613,   614,   615,   616,   617,   618,   619,   620,   621,   622,   623,   624
   625,   626,   627,   628,   629,   630,   631,   632,   633,   634,   635,   636,   637,   638,   639,   640
   641,   642,   643,   644,   645,   646,   647,   648,   649,   650,   651,   652,   653,   654,   655,   656
   657,   658,   659,   660,   661,   662,   663,   664,   665,   666,   667,   668,   669,  1120,  1122,  1123
  1125,  1126,  1127,  1128,  1130,  1132,  1133,  1136,  1149,  1150,  1151,  1152,  1153,  1154,  1155,  1156
  1157,  1158,  1159,  1160,  1161,  1162,  1163,  1164,  1165,  1166,  1167,  1168,  1169,  1170,  1171,  1172
  1173,  1174,  1175,  1176,  1177,  1178,  1179,  1180,  1181,  1182,  1183,  1184,  1185,  1186,  1187,  1188
  1190,  1191,  1192,  1193,  1197,  1198,  1199,  1200,  1201,  1202,  1203,  1204,  1206,  1208,  1210,  1211
  1212,  1213,  1214,  1215,  1216,  1217,  1218,  1219,  1220,  1221,  1223,  1225,  1227,  1229,  1231,  1232
  1240,  1241,  1242,  1243,  1244,  1250,  1251,  1252,  1253,  1254,  1255,  1256,  1257,  1258,  1260,  1261
  1262,  1265,  1267,  1268,  1269,  1270,  1273,  1275,  1276,  1278,  1279,  1280,  1281,  1282,  1283,  1289
  1293,  1294,  1295,  1296,  1297,  1299,  1306,  1308,  1309,  1310,  1311,  1312,  1352,  1353,  1354,  1355
  1356,  1357,  1358,  1359,  1360,  1361,  1362,  1363,  1364,  1365,  1366,  1367,  1368,  1369,  1370,  1371
  1372,  1373,  1374,  2641,  2644,  2645,  2646,  2648,  2650,  2651,  2653,  2654,  2656,  2657,  2658,  2660
  2662,  2663,  2664,  2665,  2668,  2671,  2680,  2681,  2682,  2685,  2686,  2687,  2688,  2690,  2691,  2694
  2695,  2696,  2697,  2698,  2699,  2718,  2719,  2720,  2721,  2722,  2723,  2724,  2725,  2726,  2727,  2728
  2729,  2730,  2731,  2732,  2733,  2734,  2735,  2736,  2737,  2738,  2739,  2740,  2741,  2744,  2748,  2749
** ... 110 like lines cut
*Nset, nset=boundy, instance=soil-1
     1,     2,     8,     9,    10,    11,    12,    36,    37,    43,    44,    45,    46,    47,    71,    72
    78,    79,    80,    81,    82,   106,   107,   113,   114,   115,   116,   117,   141,   142,   148,   149
   150,   151,   152,   176,   177,   183,   184,   185,   186,   187,   211,   212,   218,   219,   220,   221
   222,   246,   247,   253,   254,   255,   256,   257,   281,   282,   288,   289,   290,   291,   292,   316
   317,   323,   324,   325,   326,   327,   351,   352,   358,   359,   360,   361,   362,   386,   387,   393
   394,   395,   396,   397,   421,   422,   428,   429,   430,   431,   432,   456,   457,   463,   464,   465
   466,   467,   491,   492,   498,   499,   500,   501,   502,   526,   527,   533,   534,   535,   536,   537
   561,   562,   568,   569,   570,   571,   572,   895,   896,   897,   898,   899,   900,   901,   902,   903
   904,   905,   906,   907,   908,   909,   910,   911,   912,   913,   914,   915,   916,   917,   918,   919
   920,   921,   922,   923,   924,   925,   926,   927,   928,   929,   930,   931,   932,   933,   934,   935
   936,   937,   938,   939,   940,   941,   942,   943,   944,   945,   946,   947,   948,   949,   950,   951
   952,   953,   954,   955,   956,   957,   958,   959,   960,   961,   962,   963,   964,   965,   966,   967
   968,   969,   970,   971,   972,   973,   974,   975,   976,   977,   978,   979,   980,   981,   982,   983
   984,   985,   986,   987,   988,   989,   990,   991,   992,   993,   994,   995,   996,   997,   998,   999
  1000,  1001,  1002,  1003,  1004,  1005,  1006,  1007,  1008,  1009,  1010,  1011,  1012,  1013,  1014,  1015
  1016,  1017,  1018,  1019,  1020,  1021,  1022,  1023,  1024,  1025,  1026,  1027,  1028,  1029,  1030,  1031
  1032,  1033,  1034,  1035,  1036,  1037,  1038,  1039,  1040,  1041,  1042,  1043,  1044,  1045,  1046,  1047
  1048,  1049,  1050,  1051,  1052,  1053,  1054,  1055,  1056,  1057,  1058,  1059,  1060,  1061,  1062,  1063
  1064,  1065,  1066,  1067,  1068,  1069,  1070,  1071,  1072,  1073,  1074,  1075,  1076,  1077,  1078,  1079
  1080,  1081,  1082,  1083,  1084,  1085,  1086,  1087,  1088,  1089,  1090,  1091,  1092,  1093,  1094,  1095
** ... 226 like lines cut
*Elset, elset=check, instance=soil-1, generate
 3573,  3592,     1
*Elset, elset=front1, instance=soil-1
 5493, 5494, 5495, 5496, 5497, 5498, 5499, 5500, 5501, 5502, 5503, 5504, 5505, 5506, 5507, 5508
 5509, 5510, 5511, 5512, 5613, 5614, 5615, 5616, 5617, 5618, 5619, 5620, 5621, 5622, 5623, 5624
 5625, 5626, 5627, 5628, 5629, 5630, 5631, 5632, 5733, 5734, 5735, 5736, 5737, 5738, 5739, 5740
 5741, 5742, 5743, 5744, 5745, 5746, 5747, 5748, 5749, 5750, 5751, 5752, 5853, 5854, 5855, 5856
 5857, 5858, 5859, 5860, 5861, 5862, 5863, 5864, 5865, 5866, 5867, 5868, 5869, 5870, 5871, 5872
 5973, 5974, 5975, 5976, 5977, 5978, 5979, 5980, 5981, 5982, 5983, 5984, 5985, 5986, 5987, 5988
 5989, 5990, 5991, 5992, 6093, 6094, 6095, 6096, 6097, 6098, 6099, 6100, 6101, 6102, 6103, 6104
 6105, 6106, 6107, 6108, 6109, 6110, 6111, 6112, 6213, 6214, 6215, 6216, 6217, 6218, 6219, 6220
 6221, 6222, 6223, 6224, 6225, 6226, 6227, 6228, 6229, 6230, 6231, 6232, 6333, 6334, 6335, 6336
 6337, 6338, 6339, 6340, 6341, 6342, 6343, 6344, 6345, 6346, 6347, 6348, 6349, 6350, 6351, 6352
 6453, 6454, 6455, 6456, 6457, 6458, 6459, 6460, 6461, 6462, 6463, 6464, 6465, 6466, 6467, 6468
 6469, 6470, 6471, 6472, 6573, 6574, 6575, 6576, 6577, 6578, 6579, 6580, 6581, 6582, 6583, 6584
 6585, 6586, 6587, 6588, 6589, 6590, 6591, 6592, 6693, 6694, 6695, 6696, 6697, 6698, 6699, 6700
 6701, 6702, 6703, 6704, 6705, 6706, 6707, 6708, 6709, 6710, 6711, 6712, 6813, 6814, 6815, 6816
 6817, 6818, 6819, 6820, 6821, 6822, 6823, 6824, 6825, 6826, 6827, 6828, 6829, 6830, 6831, 6832
 6933, 6934, 6935, 6936, 6937, 6938, 6939, 6940, 6941, 6942, 6943, 6944, 6945, 6946, 6947, 6948
 6949, 6950, 6951, 6952, 7053, 7054, 7055, 7056, 7057, 7058, 7059, 7060, 7061, 7062, 7063, 7064
 7065, 7066, 7067, 7068, 7069, 7070, 7071, 7072, 7173, 7174, 7175, 7176, 7177, 7178, 7179, 7180
 7181, 7182, 7183, 7184, 7185, 7186, 7187, 7188, 7189, 7190, 7191, 7192, 7293, 7294, 7295, 7296
 7297, 7298, 7299, 7300, 7301, 7302, 7303, 7304, 7305, 7306, 7307, 7308, 7309, 7310, 7311, 7312
*Elset, elset=front2, instance=soil-1
 3573, 3574, 3575, 3576, 3577, 3578, 3579, 3580, 3581, 3582, 3583, 3584, 3585, 3586, 3587, 3588
 3589, 3590, 3591, 3592, 3693, 3694, 3695, 3696, 3697, 3698, 3699, 3700, 3701, 3702, 3703, 3704
 3705, 3706, 3707, 3708, 3709, 3710, 3711, 3712, 3813, 3814, 3815, 3816, 3817, 3818, 3819, 3820
 3821, 3822, 3823, 3824, 3825, 3826, 3827, 3828, 3829, 3830, 3831, 3832, 3933, 3934, 3935, 3936
 3937, 3938, 3939, 3940, 3941, 3942, 3943, 3944, 3945, 3946, 3947, 3948, 3949, 3950, 3951, 3952
 4053, 4054, 4055, 4056, 4057, 4058, 4059, 4060, 4061, 4062, 4063, 4064, 4065, 4066, 4067, 4068
 4069, 4070, 4071, 4072, 4173, 4174, 4175, 4176, 4177, 4178, 4179, 4180, 4181, 4182, 4183, 4184
 4185, 4186, 4187, 4188, 4189, 4190, 4191, 4192, 4293, 4294, 4295, 4296, 4297, 4298, 4299, 4300
 4301, 4302, 4303, 4304, 4305, 4306, 4307, 4308, 4309, 4310, 4311, 4312, 4413, 4414, 4415, 4416
 4417, 4418, 4419, 4420, 4421, 4422, 4423, 4424, 4425, 4426, 4427, 4428, 4429, 4430, 4431, 4432
 4533, 4534, 4535, 4536, 4537, 4538, 4539, 4540, 4541, 4542, 4543, 4544, 4545, 4546, 4547, 4548
 4549, 4550, 4551, 4552, 4653, 4654, 4655, 4656, 4657, 4658, 4659, 4660, 4661, 4662, 4663, 4664
 4665, 4666, 4667, 4668, 4669, 4670, 4671, 4672, 4773, 4774, 4775, 4776, 4777, 4778, 4779, 4780
 4781, 4782, 4783, 4784, 4785, 4786, 4787, 4788, 4789, 4790, 4791, 4792, 4893, 4894, 4895, 4896
 4897, 4898, 4899, 4900, 4901, 4902, 4903, 4904, 4905, 4906, 4907, 4908, 4909, 4910, 4911, 4912
 5013, 5014, 5015, 5016, 5017, 5018, 5019, 5020, 5021, 5022, 5023, 5024, 5025, 5026, 5027, 5028
 5029, 5030, 5031, 5032, 5133, 5134, 5135, 5136, 5137, 5138, 5139, 5140, 5141, 5142, 5143, 5144
 5145, 5146, 5147, 5148, 5149, 5150, 5151, 5152, 5253, 5254, 5255, 5256, 5257, 5258, 5259, 5260
 5261, 5262, 5263, 5264, 5265, 5266, 5267, 5268, 5269, 5270, 5271, 5272, 5373, 5374, 5375, 5376
 5377, 5378, 5379, 5380, 5381, 5382, 5383, 5384, 5385, 5386, 5387, 5388, 5389, 5390, 5391, 5392
*Elset, elset=front3, instance=soil-1
  481,  482,  483,  484,  485,  486,  487,  488,  489,  490,  491,  492,  493,  494,  495,  496
  577,  578,  579,  580,  581,  582,  583,  584,  585,  586,  587,  588,  589,  590,  591,  592
  673,  674,  675,  676,  677,  678,  679,  680,  681,  682,  683,  684,  685,  686,  687,  688
  769,  770,  771,  772,  773,  774,  775,  776,  777,  778,  779,  780,  781,  782,  783,  784
  865,  866,  867,  868,  869,  870,  871,  872,  873,  874,  875,  876,  877,  878,  879,  880
  961,  962,  963,  964,  965,  966,  967,  968,  969,  970,  971,  972,  973,  974,  975,  976
 1057, 1058, 1059, 1060, 1061, 1062, 1063, 1064, 1065, 1066, 1067, 1068, 1069, 1070, 1071, 1072
 1153, 1154, 1155, 1156, 1157, 1158, 1159, 1160, 1161, 1162, 1163, 1164, 1165, 1166, 1167, 1168
 1249, 1250, 1251, 1252, 1253, 1254, 1255, 1256, 1257, 1258, 1259, 1260, 1261, 1262, 1263, 1264
 1345, 1346, 1347, 1348, 1349, 1350, 1351, 1352, 1353, 1354, 1355, 1356, 1357, 1358, 1359, 1360
 1441, 1442, 1443, 1444, 1445, 1446, 1447, 1448, 1449, 1450, 1451, 1452, 1453, 1454, 1455, 1456
 1537, 1538, 1539, 1540, 1541, 1542, 1543, 1544, 1545, 1546, 1547, 1548, 1549, 1550, 1551, 1552
 1633, 1634, 1635, 1636, 1637, 1638, 1639, 1640, 1641, 1642, 1643, 1644, 1645, 1646, 1647, 1648
 1729, 1730, 1731, 1732, 1733, 1734, 1735, 1736, 1737, 1738, 1739, 1740, 1741, 1742, 1743, 1744
 1825, 1826, 1827, 1828, 1829, 1830, 1831, 1832, 1833, 1834, 1835, 1836, 1837, 1838, 1839, 1840
 1921, 1922, 1923, 1924, 1925, 1926, 1927, 1928, 1929, 1930, 1931, 1932, 1933, 1934, 1935, 1936
 2017, 2018, 2019, 2020, 2021, 2022, 2023, 2024, 2025, 2026, 2027, 2028, 2029, 2030, 2031, 2032
 2113, 2114, 2115, 2116, 2117, 2118, 2119, 2120, 2121, 2122, 2123, 2124, 2125, 2126, 2127, 2128
 2209, 2210, 2211, 2212, 2213, 2214, 2215, 2216, 2217, 2218, 2219, 2220, 2221, 2222, 2223, 2224
 2305, 2306, 2307, 2308, 2309, 2310, 2311, 2312, 2313, 2314, 2315, 2316, 2317, 2318, 2319, 2320
** ... 12 like lines cut
*Elset, elset=front4, instance=soil-1
   5,   6,   7,  17,  23,  24,  30,  31,  32,  42,  48,  49,  55,  56,  57,  67
  73,  74,  80,  81,  82,  92,  98,  99, 105, 106, 107, 117, 123, 124, 130, 131
 132, 142, 148, 149, 155, 156, 157, 167, 173, 174, 180, 181, 182, 192, 198, 199
 205, 206, 207, 217, 223, 224, 230, 231, 232, 242, 248, 249, 255, 256, 257, 267
 273, 274, 280, 281, 282, 292, 298, 299, 305, 306, 307, 317, 323, 324, 330, 331
 332, 342, 348, 349, 355, 356, 357, 367, 373, 374, 380, 381, 382, 392, 398, 399
*Elset, elset=_Surf-7_S3, internal, instance=soil-1, generate
  24,  399,   25
*Elset, elset=_Surf-7_S4, internal, instance=soil-1
   7,  23,  32,  48,  57,  73,  82,  98, 107, 123, 132, 148, 157, 173, 182, 198
 207, 223, 232, 248, 257, 273, 282, 298, 307, 323, 332, 348, 357, 373, 382, 398
*Elset, elset=_Surf-7_S5, internal, instance=soil-1
  481,  482,  483,  484,  485,  486,  487,  488,  489,  490,  491,  492,  493,  494,  495,  496
  577,  578,  579,  580,  581,  582,  583,  584,  585,  586,  587,  588,  589,  590,  591,  592
  673,  674,  675,  676,  677,  678,  679,  680,  681,  682,  683,  684,  685,  686,  687,  688
  769,  770,  771,  772,  773,  774,  775,  776,  777,  778,  779,  780,  781,  782,  783,  784
  865,  866,  867,  868,  869,  870,  871,  872,  873,  874,  875,  876,  877,  878,  879,  880
  961,  962,  963,  964,  965,  966,  967,  968,  969,  970,  971,  972,  973,  974,  975,  976
 1057, 1058, 1059, 1060, 1061, 1062, 1063, 1064, 1065, 1066, 1067, 1068, 1069, 1070, 1071, 1072
 1153, 1154, 1155, 1156, 1157, 1158, 1159, 1160, 1161, 1162, 1163, 1164, 1165, 1166, 1167, 1168
 1249, 1250, 1251, 1252, 1253, 1254, 1255, 1256, 1257, 1258, 1259, 1260, 1261, 1262, 1263, 1264
 1345, 1346, 1347, 1348, 1349, 1350, 1351, 1352, 1353, 1354, 1355, 1356, 1357, 1358, 1359, 1360
 1441, 1442, 1443, 1444, 1445, 1446, 1447, 1448, 1449, 1450, 1451, 1452, 1453, 1454, 1455, 1456
 1537, 1538, 1539, 1540, 1541, 1542, 1543, 1544, 1545, 1546, 1547, 1548, 1549, 1550, 1551, 1552
 1633, 1634, 1635, 1636, 1637, 1638, 1639, 1640, 1641, 1642, 1643, 1644, 1645, 1646, 1647, 1648
 1729, 1730, 1731, 1732, 1733, 1734, 1735, 1736, 1737, 1738, 1739, 1740, 1741, 1742, 1743, 1744
 1825, 1826, 1827, 1828, 1829, 1830, 1831, 1832, 1833, 1834, 1835, 1836, 1837, 1838, 1839, 1840
 1921, 1922, 1923, 1924, 1925, 1926, 1927, 1928, 1929, 1930, 1931, 1932, 1933, 1934, 1935, 1936
 2017, 2018, 2019, 2020, 2021, 2022, 2023, 2024, 2025, 2026, 2027, 2028, 2029, 2030, 2031, 2032
 2113, 2114, 2115, 2116, 2117, 2118, 2119, 2120, 2121, 2122, 2123, 2124, 2125, 2126, 2127, 2128
 2209, 2210, 2211, 2212, 2213, 2214, 2215, 2216, 2217, 2218, 2219, 2220, 2221, 2222, 2223, 2224
 2305, 2306, 2307, 2308, 2309, 2310, 2311, 2312, 2313, 2314, 2315, 2316, 2317, 2318, 2319, 2320
** ... 52 like lines cut
*Elset, elset=_Surf-7_S6, internal, instance=soil-1
   5,   6,  17,  30,  31,  42,  55,  56,  67,  80,  81,  92, 105, 106, 117, 130
 131, 142, 155, 156, 167, 180, 181, 192, 205, 206, 217, 230, 231, 242, 255, 256
 267, 280, 281, 292, 305, 306, 317, 330, 331, 342, 355, 356, 367, 380, 381, 392
*Surface, type=ELEMENT, name=Surf-7
_Surf-7_S3, S3
_Surf-7_S4, S4
_Surf-7_S6, S6
_Surf-7_S5, S5
*Elset, elset=_Surf-8_S1, internal, instance=soil-1
 1841, 1842, 1843, 1844, 1845, 1846, 1847, 1848, 1849, 1850, 1851, 1852, 1853, 1854, 1855, 1856
 1857, 1858, 1859, 1860, 1861, 1862, 1863, 1864, 1865, 1866, 1867, 1868, 1869, 1870, 1871, 1872
 1873, 1874, 1875, 1876, 1877, 1878, 1879, 1880, 1881, 1882, 1883, 1884, 1885, 1886, 1887, 1888
 1889, 1890, 1891, 1892, 1893, 1894, 1895, 1896, 1897, 1898, 1899, 1900, 1901, 1902, 1903, 1904
 1905, 1906, 1907, 1908, 1909, 1910, 1911, 1912, 1913, 1914, 1915, 1916, 1917, 1918, 1919, 1920
 1921, 1922, 1923, 1924, 1925, 1926, 1927, 1928, 1929, 1930, 1931, 1932, 1933, 1934, 1935, 1936
 3377, 3378, 3379, 3380, 3381, 3382, 3383, 3384, 3385, 3386, 3387, 3388, 3389, 3390, 3391, 3392
 3393, 3394, 3395, 3396, 3397, 3398, 3399, 3400, 3401, 3402, 3403, 3404, 3405, 3406, 3407, 3408
 3409, 3410, 3411, 3412, 3413, 3414, 3415, 3416, 3417, 3418, 3419, 3420, 3421, 3422, 3423, 3424
 3425, 3426, 3427, 3428, 3429, 3430, 3431, 3432, 3433, 3434, 3435, 3436, 3437, 3438, 3439, 3440
 3441, 3442, 3443, 3444, 3445, 3446, 3447, 3448, 3449, 3450, 3451, 3452, 3453, 3454, 3455, 3456
 3457, 3458, 3459, 3460, 3461, 3462, 3463, 3464, 3465, 3466, 3467, 3468, 3469, 3470, 3471, 3472
 5273, 5274, 5275, 5276, 5277, 5278, 5279, 5280, 5281, 5282, 5283, 5284, 5285, 5286, 5287, 5288
 5289, 5290, 5291, 5292, 5293, 5294, 5295, 5296, 5297, 5298, 5299, 5300, 5301, 5302, 5303, 5304
 5305, 5306, 5307, 5308, 5309, 5310, 5311, 5312, 5313, 5314, 5315, 5316, 5317, 5318, 5319, 5320
 5321, 5322, 5323, 5324, 5325, 5326, 5327, 5328, 5329, 5330, 5331, 5332, 5333, 5334, 5335, 5336
 5337, 5338, 5339, 5340, 5341, 5342, 5343, 5344, 5345, 5346, 5347, 5348, 5349, 5350, 5351, 5352
 5353, 5354, 5355, 5356, 5357, 5358, 5359, 5360, 5361, 5362, 5363, 5364, 5365, 5366, 5367, 5368
 5369, 5370, 5371, 5372, 5373, 5374, 5375, 5376, 5377, 5378, 5379, 5380, 5381, 5382, 5383, 5384
 5385, 5386, 5387, 5388, 5389, 5390, 5391, 5392, 7193, 7194, 7195, 7196, 7197, 7198, 7199, 7200
** ... 7 like lines cut
*Elset, elset=_Surf-8_S2, internal, instance=soil-1, generate
 376,  400,    1
*Elset, elset=_Surf-8_S4, internal, instance=soil-1, generate
  416,  1936,    16
*Elset, elset=_Surf-8_S6, internal, instance=soil-1, generate
 1937,  3457,    16
*Surface, type=ELEMENT, name=Surf-8
_Surf-8_S1, S1
_Surf-8_S2, S2
_Surf-8_S4, S4
_Surf-8_S6, S6
*Elset, elset=_bc1_S1, internal, instance=soil-1
 1841, 1842, 1843, 1844, 1845, 1846, 1847, 1848, 1849, 1850, 1851, 1852, 1853, 1854, 1855, 1856
 1857, 1858, 1859, 1860, 1861, 1862, 1863, 1864, 1865, 1866, 1867, 1868, 1869, 1870, 1871, 1872
 1873, 1874, 1875, 1876, 1877, 1878, 1879, 1880, 1881, 1882, 1883, 1884, 1885, 1886, 1887, 1888
 1889, 1890, 1891, 1892, 1893, 1894, 1895, 1896, 1897, 1898, 1899, 1900, 1901, 1902, 1903, 1904
 1905, 1906, 1907, 1908, 1909, 1910, 1911, 1912, 1913, 1914, 1915, 1916, 1917, 1918, 1919, 1920
 1921, 1922, 1923, 1924, 1925, 1926, 1927, 1928, 1929, 1930, 1931, 1932, 1933, 1934, 1935, 1936
 3377, 3378, 3379, 3380, 3381, 3382, 3383, 3384, 3385, 3386, 3387, 3388, 3389, 3390, 3391, 3392
 3393, 3394, 3395, 3396, 3397, 3398, 3399, 3400, 3401, 3402, 3403, 3404, 3405, 3406, 3407, 3408
 3409, 3410, 3411, 3412, 3413, 3414, 3415, 3416, 3417, 3418, 3419, 3420, 3421, 3422, 3423, 3424
 3425, 3426, 3427, 3428, 3429, 3430, 3431, 3432, 3433, 3434, 3435, 3436, 3437, 3438, 3439, 3440
 3441, 3442, 3443, 3444, 3445, 3446, 3447, 3448, 3449, 3450, 3451, 3452, 3453, 3454, 3455, 3456
 3457, 3458, 3459, 3460, 3461, 3462, 3463, 3464, 3465, 3466, 3467, 3468, 3469, 3470, 3471, 3472
 5273, 5274, 5275, 5276, 5277, 5278, 5279, 5280, 5281, 5282, 5283, 5284, 5285, 5286, 5287, 5288
 5289, 5290, 5291, 5292, 5293, 5294, 5295, 5296, 5297, 5298, 5299, 5300, 5301, 5302, 5303, 5304
 5305, 5306, 5307, 5308, 5309, 5310, 5311, 5312, 5313, 5314, 5315, 5316, 5317, 5318, 5319, 5320
 5321, 5322, 5323, 5324, 5325, 5326, 5327, 5328, 5329, 5330, 5331, 5332, 5333, 5334, 5335, 5336
 5337, 5338, 5339, 5340, 5341, 5342, 5343, 5344, 5345, 5346, 5347, 5348, 5349, 5350, 5351, 5352
 5353, 5354, 5355, 5356, 5357, 5358, 5359, 5360, 5361, 5362, 5363, 5364, 5365, 5366, 5367, 5368
 5369, 5370, 5371, 5372, 5373, 5374, 5375, 5376, 5377, 5378, 5379, 5380, 5381, 5382, 5383, 5384
 5385, 5386, 5387, 5388, 5389, 5390, 5391, 5392, 7193, 7194, 7195, 7196, 7197, 7198, 7199, 7200
** ... 7 like lines cut
*Elset, elset=_bc1_S6, internal, instance=soil-1, generate
 1937,  3457,    16
*Elset, elset=_bc1_S2, internal, instance=soil-1, generate
 376,  400,    1
*Elset, elset=_bc1_S4, internal, instance=soil-1, generate
  416,  1936,    16
*Surface, type=ELEMENT, name=bc1
_bc1_S1, S1
_bc1_S6, S6
_bc1_S2, S2
_bc1_S4, S4
*Elset, elset=_bc2_S5, internal, instance=soil-1
  481,  482,  483,  484,  485,  486,  487,  488,  489,  490,  491,  492,  493,  494,  495,  496
  577,  578,  579,  580,  581,  582,  583,  584,  585,  586,  587,  588,  589,  590,  591,  592
  673,  674,  675,  676,  677,  678,  679,  680,  681,  682,  683,  684,  685,  686,  687,  688
  769,  770,  771,  772,  773,  774,  775,  776,  777,  778,  779,  780,  781,  782,  783,  784
  865,  866,  867,  868,  869,  870,  871,  872,  873,  874,  875,  876,  877,  878,  879,  880
  961,  962,  963,  964,  965,  966,  967,  968,  969,  970,  971,  972,  973,  974,  975,  976
 1057, 1058, 1059, 1060, 1061, 1062, 1063, 1064, 1065, 1066, 1067, 1068, 1069, 1070, 1071, 1072
 1153, 1154, 1155, 1156, 1157, 1158, 1159, 1160, 1161, 1162, 1163, 1164, 1165, 1166, 1167, 1168
 1249, 1250, 1251, 1252, 1253, 1254, 1255, 1256, 1257, 1258, 1259, 1260, 1261, 1262, 1263, 1264
 1345, 1346, 1347, 1348, 1349, 1350, 1351, 1352, 1353, 1354, 1355, 1356, 1357, 1358, 1359, 1360
 1441, 1442, 1443, 1444, 1445, 1446, 1447, 1448, 1449, 1450, 1451, 1452, 1453, 1454, 1455, 1456
 1537, 1538, 1539, 1540, 1541, 1542, 1543, 1544, 1545, 1546, 1547, 1548, 1549, 1550, 1551, 1552
 1633, 1634, 1635, 1636, 1637, 1638, 1639, 1640, 1641, 1642, 1643, 1644, 1645, 1646, 1647, 1648
 1729, 1730, 1731, 1732, 1733, 1734, 1735, 1736, 1737, 1738, 1739, 1740, 1741, 1742, 1743, 1744
 1825, 1826, 1827, 1828, 1829, 1830, 1831, 1832, 1833, 1834, 1835, 1836, 1837, 1838, 1839, 1840
 1921, 1922, 1923, 1924, 1925, 1926, 1927, 1928, 1929, 1930, 1931, 1932, 1933, 1934, 1935, 1936
 2017, 2018, 2019, 2020, 2021, 2022, 2023, 2024, 2025, 2026, 2027, 2028, 2029, 2030, 2031, 2032
 2113, 2114, 2115, 2116, 2117, 2118, 2119, 2120, 2121, 2122, 2123, 2124, 2125, 2126, 2127, 2128
 2209, 2210, 2211, 2212, 2213, 2214, 2215, 2216, 2217, 2218, 2219, 2220, 2221, 2222, 2223, 2224
 2305, 2306, 2307, 2308, 2309, 2310, 2311, 2312, 2313, 2314, 2315, 2316, 2317, 2318, 2319, 2320
** ... 52 like lines cut
*Elset, elset=_bc2_S6, internal, instance=soil-1
   5,   6,  17,  30,  31,  42,  55,  56,  67,  80,  81,  92, 105, 106, 117, 130
 131, 142, 155, 156, 167, 180, 181, 192, 205, 206, 217, 230, 231, 242, 255, 256
 267, 280, 281, 292, 305, 306, 317, 330, 331, 342, 355, 356, 367, 380, 381, 392
*Elset, elset=_bc2_S4, internal, instance=soil-1
   7,  23,  32,  48,  57,  73,  82,  98, 107, 123, 132, 148, 157, 173, 182, 198
 207, 223, 232, 248, 257, 273, 282, 298, 307, 323, 332, 348, 357, 373, 382, 398
*Elset, elset=_bc2_S3, internal, instance=soil-1, generate
  24,  399,   25
*Surface, type=ELEMENT, name=bc2
_bc2_S5, S5
_bc2_S6, S6
_bc2_S4, S4
_bc2_S3, S3
*Elset, elset=_tiepile_S5, internal, instance=pile-1
  31,  50,  52,  53,  54,  55,  61,  80,  82,  83,  84,  85,  91, 110, 112, 113
 114, 115, 121, 140, 142, 143, 144, 145, 151, 170, 172, 173, 174, 175, 181, 200
 202, 203, 204, 205, 211, 230, 232, 233, 234, 235, 241, 260, 262, 263, 264, 265
 271, 290, 292, 293, 294, 295, 301, 320, 322, 323, 324, 325, 331, 350, 352, 353
 354, 355, 361, 380, 382, 383, 384, 385, 391, 410, 412, 413, 414, 415, 421, 440
 442, 443, 444, 445, 451, 470, 472, 473, 474, 475, 481, 500, 502, 503, 504, 505
 511, 530, 532, 533, 534, 535, 541, 560, 562, 563, 564, 565, 571, 590, 592, 593
 594, 595, 601, 620, 622, 623, 624, 625
*Elset, elset=_tiepile_S6, internal, instance=pile-1
  32,  37,  62,  67,  92,  97, 122, 127, 152, 157, 182, 187, 212, 217, 242, 247
 272, 277, 302, 307, 332, 337, 362, 367, 392, 397, 422, 427, 452, 457, 482, 487
 512, 517, 542, 547, 572, 577, 602, 607
*Elset, elset=_tiepile_S3, internal, instance=pile-1
  44,  47,  48,  49,  74,  77,  78,  79, 104, 107, 108, 109, 134, 137, 138, 139
 164, 167, 168, 169, 194, 197, 198, 199, 224, 227, 228, 229, 254, 257, 258, 259
 284, 287, 288, 289, 314, 317, 318, 319, 344, 347, 348, 349, 374, 377, 378, 379
 404, 407, 408, 409, 434, 437, 438, 439, 464, 467, 468, 469, 494, 497, 498, 499
 524, 527, 528, 529, 554, 557, 558, 559, 584, 587, 588, 589, 614, 617, 618, 619
*Elset, elset=_tiepile_S2, internal, instance=pile-1, generate
 601,  630,    1
*Surface, type=ELEMENT, name=tiepile
_tiepile_S5, S5
_tiepile_S6, S6
_tiepile_S2, S2
_tiepile_S3, S3
*Elset, elset=_tiesoil_S2, internal, instance=soil-1
 3473, 3474, 3475, 3476, 3477, 3478, 3479, 3480, 3481, 3482, 3483, 3484, 3485, 3486, 3487, 3488
 3489, 3490, 3491, 3492, 3493, 3494, 3495, 3496, 3497, 3498, 3499, 3500, 3501, 3502, 3503, 3504
 3505, 3506, 3507, 3508, 3509, 3510, 3511, 3512, 3513, 3514, 3515, 3516, 3517, 3518, 3519, 3520
 3521, 3522, 3523, 3524, 3525, 3526, 3527, 3528, 3529, 3530, 3531, 3532, 3533, 3534, 3535, 3536
 3537, 3538, 3539, 3540, 3541, 3542, 3543, 3544, 3545, 3546, 3547, 3548, 3549, 3550, 3551, 3552
 3553, 3554, 3555, 3556, 3557, 3558, 3559, 3560, 3561, 3562, 3563, 3564, 3565, 3566, 3567, 3568
 3569, 3570, 3571, 3572, 3573, 3574, 3575, 3576, 3577, 3578, 3579, 3580, 3581, 3582, 3583, 3584
 3585, 3586, 3587, 3588, 3589, 3590, 3591, 3592, 5393, 5394, 5395, 5396, 5397, 5398, 5399, 5400
 5401, 5402, 5403, 5404, 5405, 5406, 5407, 5408, 5409, 5410, 5411, 5412, 5413, 5414, 5415, 5416
 5417, 5418, 5419, 5420, 5421, 5422, 5423, 5424, 5425, 5426, 5427, 5428, 5429, 5430, 5431, 5432
 5433, 5434, 5435, 5436, 5437, 5438, 5439, 5440, 5441, 5442, 5443, 5444, 5445, 5446, 5447, 5448
 5449, 5450, 5451, 5452, 5453, 5454, 5455, 5456, 5457, 5458, 5459, 5460, 5461, 5462, 5463, 5464
 5465, 5466, 5467, 5468, 5469, 5470, 5471, 5472, 5473, 5474, 5475, 5476, 5477, 5478, 5479, 5480
 5481, 5482, 5483, 5484, 5485, 5486, 5487, 5488, 5489, 5490, 5491, 5492, 5493, 5494, 5495, 5496
 5497, 5498, 5499, 5500, 5501, 5502, 5503, 5504, 5505, 5506, 5507, 5508, 5509, 5510, 5511, 5512
*Elset, elset=_tiesoil_S1, internal, instance=soil-1, generate
  1,  25,   1
*Surface, type=ELEMENT, name=tiesoil
_tiesoil_S2, S2
_tiesoil_S1, S1
** Constraint: soil-pile
*Tie, name=soil-pile, adjust=yes
tiesoil, tiepile
*End Assembly
*Amplitude, name=Amp-1
             0.,              0.,            0.01,     0.031410759,            0.02,     0.062790518,            0.03,     0.094108312
           0.04,     0.125333231,            0.05,     0.156434462,            0.06,     0.187381311,            0.07,     0.218143238
           0.08,     0.248689883,            0.09,     0.278991101,             0.1,     0.309016989,            0.11,     0.338737915
           0.12,     0.368124547,            0.13,     0.397147884,            0.14,     0.425779285,            0.15,     0.453990493
           0.16,     0.481753667,            0.17,     0.509041408,            0.18,     0.535826787,            0.19,     0.562083369
            0.2,     0.587785244,            0.21,     0.612907045,            0.22,     0.637423981,            0.23,     0.661311856
           0.24,     0.684547097,            0.25,     0.707106772,            0.26,     0.728968618,            0.27,      0.75011106
           0.28,     0.770513233,            0.29,     0.790155003,             0.3,     0.809016985,            0.31,     0.827080565
           0.32,     0.844327916,            0.33,     0.860742018,            0.34,     0.876306671,            0.35,     0.891006516
           0.36,     0.904827044,            0.37,     0.917754618,            0.38,     0.929776478,            0.39,     0.940880762
            0.4,      0.95105651,            0.41,      0.96029368,            0.42,     0.968583156,            0.43,     0.975916757
           0.44,     0.982287246,            0.45,     0.987688337,            0.46,     0.992114698,            0.47,     0.995561962
           0.48,     0.998026727,            0.49,      0.99950656,             0.5,              1.,            0.51,     0.999506561
           0.52,      0.99802673,            0.53,     0.995561967,            0.54,     0.992114705,            0.55,     0.987688345
           0.56,     0.982287256,            0.57,     0.975916769,            0.58,     0.968583169,            0.59,     0.960293694
            0.6,     0.951056526,            0.61,      0.94088078,            0.62,     0.929776498,            0.63,     0.917754639
           0.64,     0.904827067,            0.65,      0.89100654,            0.66,     0.876306697,            0.67,     0.860742045
           0.68,     0.844327945,            0.69,     0.827080595,             0.7,     0.809017016,            0.71,     0.790155036
           0.72,     0.770513267,            0.73,     0.750111096,            0.74,     0.728968655,            0.75,      0.70710681
           0.76,     0.684547136,            0.77,     0.661311896,            0.78,     0.637424022,            0.79,     0.612907087
** ... 6 like lines cut
*Amplitude, name="body force", time=TOTAL TIME
             0.,              0.,              1.,              1.,           1e+20,              1.
** 
** MATERIALS
** 
*Material, name=pile
*Density
20.,
*Elastic
 2e+11, 0.2
*Material, name=soil
*Density
15.,
*Elastic
 1.1e+07, 0.45
 *initial CONDITIONS, type=stress, user
** 
** BOUNDARY CONDITIONS
** 
** Name: BOUNDXYZ Type: Displacement/Rotation
*Boundary
Set-15, 1, 1
Set-15, 2, 2
Set-15, 3, 3
Set-15, 4, 4
Set-15, 5, 5
Set-15, 6, 6
** Name: BOUNDY Type: Symmetry/Antisymmetry/Encastre
*Boundary
Set-5, YSYMM
** ----------------------------------------------------------------
** 
** STEP: Step-1
** 
*Step, name=Step-1, nlgeom=NO, unsymm=YES
*Geostatic
** 
** LOADS
** 
** Name: Load-1   Type: Body force
*Dload, amplitude="body force"
Set-1, BZ, -1e-14
** 
** OUTPUT REQUESTS
** 
*Restart, write, frequency=0
** 
** FIELD OUTPUT: F-Output-1
** 
*Output, field, variable=PRESELECT
** 
** HISTORY OUTPUT: H-Output-1
** 
*Output, history, variable=PRESELECT
*element matrix output, elset=ALLELE, file name=shortpile, frequency=200, outputfile=user defined, stiffness=yes
*End Step
